LTspice 24.1.9 for Windows
Circuit: C:\Users\jaisr\OneDrive\Desktop\S26-Courses\EW2\P2\final ckt UA741.net
Start Time: Mon May  4 18:43:14 2026
solver = Normal
Maximum thread count: 22
tnom = 27
temp = 27
method = modified trap
Early termination of direct N-R iteration.
Direct Newton iteration failed to find .op point.  (Use ".option noopiter" to skip.)
Starting Gmin stepping
Gmin = 10
vernier = 0.5
vernier = 0.25
vernier = 0.125
Gmin = 5.49741
vernier = 0.0625
vernier = 0.03125
vernier = 0.015625
vernier = 0.0078125
Gmin = 5.51716
vernier = 0.00390625
vernier = 0.00195312
vernier = 0.000976562
vernier = 0.000488281
Gmin = 5.50104
Gmin = 0
Gmin stepping failed

Starting source stepping with srcstepmethod=0
Source Step = 3.0303%
Source Step = 33.3333%
Source Step = 63.6364%
Source Step = 93.9394%
Source stepping succeeded in finding the operating point.

Total elapsed time: 17.257 seconds.

Files loaded:
C:\Users\jaisr\OneDrive\Desktop\S26-Courses\EW2\P2\final ckt UA741.net
C:\Users\jaisr\OneDrive\Desktop\S26-Courses\EW2\P2\UA741.lib

